<?xml version="1.0" encoding="UTF-8"?>

<!-- generated on 2021-05-31 19:13:21 by Eclipse SUMO netedit Version 1.9.2
<configuration xmlns:xsi="http://www.w3.org/2001/XMLSchema-instance" xsi:noNamespaceSchemaLocation="http://sumo.dlr.de/xsd/netconvertConfiguration.xsd">

    <input>
        <sumo-net-file value="/home/dev/Desktop/repos/NewSMARTS/SMARTS/BM/basic/maps/curve/2lane_ow_curve_ahead_heavy_2e.net.xml"/>
    </input>

    <output>
        <output-file value="/home/dev/Desktop/repos/NewSMARTS/SMARTS/BM/basic/maps/curve/4lane_curve_ahead_heavy_2e_2w.net.xml"/>
    </output>

    <processing>
        <geometry.min-radius.fix.railways value="false"/>
        <geometry.max-grade.fix value="false"/>
        <offset.disable-normalization value="true"/>
        <lefthand value="false"/>
    </processing>

    <junctions>
        <no-internal-links value="true"/>
        <no-turnarounds value="true"/>
        <junctions.corner-detail value="5"/>
        <junctions.limit-turn-speed value="5.5"/>
        <rectangular-lane-cut value="false"/>
    </junctions>

    <pedestrian>
        <walkingareas value="false"/>
    </pedestrian>

    <report>
        <aggregate-warnings value="5"/>
    </report>

</configuration>
-->

<net version="1.9" junctionCornerDetail="5" limitTurnSpeed="5.50" xmlns:xsi="http://www.w3.org/2001/XMLSchema-instance" xsi:noNamespaceSchemaLocation="http://sumo.dlr.de/xsd/net_file.xsd">

    <location netOffset="0.00,0.00" convBoundary="-6.33,-20.91,249.57,65.94" origBoundary="-10000000000.00,-10000000000.00,10000000000.00,10000000000.00" projParameter="!"/>

    <edge id="-curve_ahead" from="east_end" to="west_end" priority="-1" shape="249.57,65.94 248.35,64.32 247.13,62.72 244.69,59.56 242.25,56.47 239.82,53.43 237.38,50.46 234.95,47.55 232.52,44.69 230.08,41.90 227.65,39.17 225.22,36.50 222.79,33.89 220.36,31.34 217.94,28.85 215.51,26.43 213.08,24.06 210.66,21.75 208.23,19.51 205.81,17.32 203.39,15.20 200.97,13.13 198.55,11.13 196.13,9.19 193.71,7.31 191.29,5.49 188.87,3.73 186.46,2.03 184.04,0.39 181.63,-1.19 179.21,-2.71 176.80,-4.16 174.39,-5.56 171.98,-6.89 169.57,-8.17 167.16,-9.38 164.75,-10.54 162.34,-11.63 159.93,-12.66 157.53,-13.63 155.12,-14.54 152.72,-15.39 150.32,-16.18 147.92,-16.91 145.51,-17.58 143.11,-18.18 140.71,-18.73 138.32,-19.21 135.92,-19.64 133.52,-20.00 131.12,-20.31 128.73,-20.55 126.34,-20.73 123.94,-20.85 121.55,-20.91 119.16,-20.91 116.77,-20.85 114.38,-20.73 111.99,-20.55 109.60,-20.31 107.21,-20.00 104.83,-19.64 102.44,-19.21 100.06,-18.73 97.67,-18.18 95.29,-17.58 92.91,-16.91 90.53,-16.18 88.15,-15.39 85.77,-14.54 83.39,-13.63 81.01,-12.66 78.64,-11.63 76.26,-10.54 73.89,-9.38 71.51,-8.17 69.14,-6.89 66.77,-5.56 64.40,-4.16 62.02,-2.71 59.66,-1.19 57.29,0.39 54.92,2.03 52.55,3.73 50.19,5.49 47.82,7.31 45.46,9.19 43.09,11.13 40.73,13.13 38.37,15.20 36.01,17.32 33.65,19.51 31.29,21.75 28.93,24.06 26.58,26.43 24.22,28.85 21.86,31.34 19.51,33.89 17.16,36.50 14.80,39.17 12.45,41.90 10.10,44.69 7.75,47.55 5.40,50.46 3.05,53.43 0.70,56.47 -1.64,59.56 -3.99,62.72 -6.33,65.94">
        <lane id="-curve_ahead_0" index="0" speed="13.89" length="320.66" shape="245.74,68.83 244.52,67.22 243.32,65.65 240.91,62.51 238.49,59.46 236.09,56.45 233.68,53.52 231.28,50.64 228.88,47.82 226.48,45.08 224.08,42.38 221.69,39.75 219.30,37.18 216.90,34.67 214.53,32.22 212.14,29.85 209.75,27.51 207.38,25.25 204.99,23.05 202.62,20.90 200.25,18.83 197.88,16.80 195.52,14.85 193.16,12.96 190.79,11.12 188.44,9.35 186.07,7.63 183.73,5.98 181.38,4.38 179.04,2.85 176.70,1.38 174.36,-0.03 172.02,-1.38 169.69,-2.67 167.37,-3.91 165.04,-5.07 162.72,-6.19 160.41,-7.24 158.09,-8.23 155.78,-9.16 153.47,-10.03 151.17,-10.85 148.87,-11.60 146.58,-12.30 144.28,-12.94 141.99,-13.51 139.70,-14.04 137.42,-14.49 135.14,-14.90 132.86,-15.25 130.57,-15.54 128.31,-15.77 126.04,-15.94 123.76,-16.05 121.49,-16.11 119.22,-16.11 116.95,-16.05 114.68,-15.94 112.41,-15.77 110.15,-15.54 107.88,-15.25 105.61,-14.90 103.34,-14.50 101.07,-14.04 98.79,-13.51 96.53,-12.94 94.26,-12.31 91.99,-11.61 89.71,-10.85 87.43,-10.04 85.15,-9.17 82.87,-8.24 80.60,-7.25 78.31,-6.20 76.03,-5.08 73.74,-3.92 71.46,-2.69 69.17,-1.40 66.87,-0.04 64.57,1.36 62.29,2.82 59.99,4.36 57.68,5.95 55.38,7.60 53.09,9.32 50.78,11.09 48.48,12.92 46.16,14.82 43.86,16.77 41.56,18.79 39.25,20.86 36.93,23.01 34.62,25.21 32.31,27.46 30.00,29.80 27.68,32.18 25.37,34.62 23.06,37.12 20.74,39.70 18.42,42.33 16.10,45.01 13.79,47.76 11.47,50.58 9.15,53.46 6.83,56.39 4.51,59.39 2.20,62.44 -0.12,65.56 -2.45,68.76"/>
        <lane id="-curve_ahead_1" index="1" speed="13.89" length="320.66" shape="248.29,66.90 247.07,65.29 245.86,63.70 243.43,60.54 241.00,57.47 238.58,54.44 236.15,51.48 233.73,48.58 231.31,45.73 228.88,42.96 226.46,40.24 224.04,37.58 221.63,34.99 219.21,32.45 216.80,29.97 214.39,27.57 211.97,25.21 209.57,22.92 207.15,20.69 204.75,18.51 202.34,16.41 199.94,14.35 197.54,12.37 195.14,10.45 192.74,8.58 190.34,6.78 187.94,5.03 185.55,3.35 183.15,1.72 180.77,0.16 178.37,-1.35 175.99,-2.78 173.60,-4.17 171.22,-5.48 168.84,-6.75 166.45,-7.94 164.07,-9.09 161.70,-10.17 159.32,-11.18 156.95,-12.14 154.57,-13.04 152.20,-13.88 149.84,-14.65 147.47,-15.37 145.10,-16.03 142.74,-16.62 140.37,-17.17 138.02,-17.64 135.66,-18.06 133.30,-18.42 130.94,-18.72 128.59,-18.96 126.24,-19.13 123.88,-19.25 121.53,-19.31 119.18,-19.31 116.83,-19.25 114.48,-19.13 112.13,-18.96 109.78,-18.72 107.43,-18.42 105.09,-18.06 102.74,-17.64 100.40,-17.17 98.04,-16.62 95.70,-16.03 93.36,-15.38 91.02,-14.66 88.67,-13.88 86.32,-13.04 83.98,-12.14 81.63,-11.19 79.29,-10.17 76.94,-9.09 74.60,-7.95 72.25,-6.75 69.91,-5.49 67.57,-4.17 65.22,-2.79 62.87,-1.35 60.54,0.15 58.19,1.71 55.84,3.34 53.49,5.02 51.16,6.77 48.81,8.57 46.47,10.43 44.11,12.36 41.77,14.34 39.43,16.40 37.09,18.50 34.74,20.68 32.40,22.90 30.06,25.19 27.72,27.55 25.37,29.96 23.03,32.43 20.69,34.97 18.35,37.57 16.01,40.22 13.67,42.94 11.33,45.71 8.99,48.56 6.65,51.46 4.31,54.42 1.97,57.44 -0.36,60.52 -2.70,63.67 -5.04,66.88"/>
    </edge>
    <edge id="curve_ahead" from="west_end" to="east_end" priority="-1" shape="-6.33,65.94 -3.99,62.72 -1.64,59.56 0.70,56.47 3.05,53.43 5.40,50.46 7.75,47.55 10.10,44.69 12.45,41.90 14.80,39.17 17.16,36.50 19.51,33.89 21.86,31.34 24.22,28.85 26.58,26.43 28.93,24.06 31.29,21.75 33.65,19.51 36.01,17.32 38.37,15.20 40.73,13.13 43.09,11.13 45.46,9.19 47.82,7.31 50.19,5.49 52.55,3.73 54.92,2.03 57.29,0.39 59.66,-1.19 62.02,-2.71 64.40,-4.16 66.77,-5.56 69.14,-6.89 71.51,-8.17 73.89,-9.38 76.26,-10.54 78.64,-11.63 81.01,-12.66 83.39,-13.63 85.77,-14.54 88.15,-15.39 90.53,-16.18 92.91,-16.91 95.29,-17.58 97.67,-18.18 100.06,-18.73 102.44,-19.21 104.83,-19.64 107.21,-20.00 109.60,-20.31 111.99,-20.55 114.38,-20.73 116.77,-20.85 119.16,-20.91 121.55,-20.91 123.94,-20.85 126.34,-20.73 128.73,-20.55 131.12,-20.31 133.52,-20.00 135.92,-19.64 138.32,-19.21 140.71,-18.73 143.11,-18.18 145.51,-17.58 147.92,-16.91 150.32,-16.18 152.72,-15.39 155.12,-14.54 157.53,-13.63 159.93,-12.66 162.34,-11.63 164.75,-10.54 167.16,-9.38 169.57,-8.17 171.98,-6.89 174.39,-5.56 176.80,-4.16 179.21,-2.71 181.63,-1.19 184.04,0.39 186.46,2.03 188.87,3.73 191.29,5.49 193.71,7.31 196.13,9.19 198.55,11.13 200.97,13.13 203.39,15.20 205.81,17.32 208.23,19.51 210.66,21.75 213.08,24.06 215.51,26.43 217.94,28.85 220.36,31.34 222.79,33.89 225.22,36.50 227.65,39.17 230.08,41.90 232.52,44.69 234.95,47.55 237.38,50.46 239.82,53.43 242.25,56.47 244.69,59.56 247.13,62.72 248.35,64.32 249.57,65.94">
        <lane id="curve_ahead_0" index="0" speed="13.89" length="320.66" shape="-10.21,63.12 -7.86,59.88 -5.48,56.68 -3.11,53.55 -0.73,50.47 1.65,47.46 4.03,44.52 6.41,41.62 8.80,38.79 11.18,36.01 13.58,33.30 15.96,30.66 18.35,28.06 20.76,25.52 23.16,23.06 25.55,20.66 27.96,18.29 30.37,16.01 32.77,13.78 35.18,11.61 37.60,9.49 40.02,7.44 42.44,5.46 44.86,3.53 47.29,1.66 49.72,-0.14 52.16,-1.89 54.59,-3.58 57.03,-5.20 59.47,-6.78 61.93,-8.28 64.37,-9.72 66.82,-11.09 69.28,-12.42 71.75,-13.68 74.21,-14.88 76.68,-16.01 79.15,-17.08 81.63,-18.09 84.11,-19.04 86.59,-19.93 89.07,-20.75 91.56,-21.51 94.05,-22.22 96.55,-22.85 99.05,-23.42 101.54,-23.92 104.05,-24.38 106.54,-24.75 109.05,-25.08 111.57,-25.33 114.08,-25.52 116.59,-25.65 119.10,-25.71 121.61,-25.71 124.12,-25.65 126.64,-25.52 129.15,-25.33 131.67,-25.08 134.18,-24.75 136.70,-24.38 139.22,-23.93 141.72,-23.42 144.23,-22.85 146.74,-22.22 149.26,-21.52 151.77,-20.76 154.27,-19.93 156.77,-19.05 159.28,-18.10 161.77,-17.09 164.27,-16.02 166.78,-14.89 169.28,-13.69 171.77,-12.43 174.27,-11.11 176.76,-9.74 179.24,-8.29 181.72,-6.80 184.22,-5.23 186.70,-3.60 189.19,-1.92 191.67,-0.17 194.14,1.63 196.63,3.50 199.10,5.42 201.58,7.41 204.06,9.46 206.53,11.57 209.00,13.74 211.47,15.97 213.94,18.25 216.41,20.61 218.88,23.01 221.35,25.48 223.82,28.01 226.28,30.60 228.75,33.25 231.22,35.96 233.68,38.72 236.16,41.56 238.62,44.46 241.08,47.40 243.55,50.41 246.01,53.48 248.47,56.61 250.94,59.79 252.18,61.42 253.40,63.05"/>
        <lane id="curve_ahead_1" index="1" speed="13.89" length="320.66" shape="-7.62,65.00 -5.28,61.77 -2.92,58.60 -0.57,55.50 1.79,52.44 4.15,49.46 6.51,46.54 8.87,43.67 11.23,40.86 13.59,38.12 15.97,35.43 18.33,32.81 20.69,30.25 23.07,27.74 25.44,25.31 27.80,22.93 30.18,20.60 32.56,18.34 34.93,16.14 37.31,14.00 39.69,11.92 42.07,9.90 44.45,7.95 46.83,6.05 49.22,4.21 51.61,2.44 54.00,0.72 56.39,-0.93 58.78,-2.53 61.17,-4.07 63.58,-5.53 65.97,-6.95 68.37,-8.29 70.77,-9.59 73.18,-10.81 75.58,-11.99 77.99,-13.09 80.39,-14.13 82.80,-15.12 85.22,-16.04 87.63,-16.90 90.04,-17.70 92.46,-18.44 94.88,-19.13 97.30,-19.74 99.72,-20.29 102.14,-20.78 104.57,-21.22 106.99,-21.58 109.42,-21.90 111.85,-22.14 114.28,-22.33 116.71,-22.45 119.14,-22.51 121.57,-22.51 124.00,-22.45 126.44,-22.33 128.87,-22.14 131.30,-21.90 133.74,-21.58 136.18,-21.22 138.62,-20.78 141.05,-20.29 143.48,-19.74 145.92,-19.13 148.37,-18.45 150.80,-17.71 153.24,-16.90 155.67,-16.04 158.11,-15.12 160.54,-14.14 162.98,-13.09 165.43,-11.99 167.87,-10.82 170.30,-9.59 172.74,-8.30 175.18,-6.95 177.61,-5.54 180.05,-4.07 182.49,-2.54 184.93,-0.94 187.37,0.71 189.80,2.43 192.24,4.20 194.68,6.04 197.12,7.93 199.56,9.89 202.00,11.91 204.44,13.99 206.87,16.13 209.31,18.33 211.75,20.58 214.19,22.91 216.63,25.29 219.08,27.73 221.51,30.23 223.95,32.79 226.40,35.42 228.84,38.10 231.28,40.84 233.73,43.65 236.17,46.52 238.61,49.44 241.06,52.42 243.50,55.47 245.95,58.58 248.40,61.74 249.63,63.35 250.85,64.98"/>
    </edge>

    <junction id="east_end" type="dead_end" x="249.57" y="65.94" incLanes="curve_ahead_0 curve_ahead_1" intLanes="" shape="249.57,65.94 254.68,62.09 249.57,65.94"/>
    <junction id="west_end" type="dead_end" x="-6.33" y="65.94" incLanes="-curve_ahead_0 -curve_ahead_1" intLanes="" shape="-6.33,65.94 -1.15,69.70 -6.33,65.94"/>

</net>
